%chk=BAM_FOR_3.chk
# hf/3-21g geom=connectivity

Title Card Required

0 1
 C                  0.96731072   -0.34469105    1.91052054
 H                  1.22571750   -1.35374815    2.15532599
 H                  1.40625282   -0.08208439    0.97069738
 H                 -0.09688499   -0.25499777    1.84462206
 C                  1.49529588    0.60054822    3.00567094
 H                  1.23688910    1.60960532    2.76086549
 H                  1.05635378    0.33794155    3.94549410
 C                  3.02694204    0.47145695    3.10051547
 H                  3.46588414    0.73406362    2.16069231
 H                  3.28534882   -0.53760015    3.34532092
 C                  3.55492719    1.41669622    4.19566588
 H                  3.11598509    1.15408956    5.13548904
 H                  3.29652041    2.42575332    3.95086043
 N                  5.01695307    1.29347274    4.28619929
 H                  5.35980058    1.90726448    4.99733592
 H                  5.25845474    0.35042873    4.51498943
 H                  5.42717933    1.53889953    3.40785989
 C                  6.27041820   -0.10998041    2.58142564
 H                  6.79715800    0.63493804    3.14047992
 O                  5.07083781    0.08115914    2.25272652
 O                  6.85051312   -1.17719990    2.25263541

 1 2 1.0 3 1.0 4 1.0 5 1.0
 2
 3
 4
 5 6 1.0 7 1.0 8 1.0
 6
 7
 8 9 1.0 10 1.0 11 1.0
 9
 10
 11 12 1.0 13 1.0 14 1.0
 12
 13
 14 15 1.0 16 1.0 17 1.0
 15
 16
 17
 18 19 1.0 20 2.0 21 2.0
 19
 20
 21

