%chk=BMI_MTS_3.chk
# hf/3-21g geom=connectivity

Title Card Required

0 1
 C                 -1.12040985   -2.97500724    0.32283044
 C                  0.13974724   -2.93333441    0.79160618
 C                 -0.92351645   -1.24887696    1.57010540
 N                 -1.75731616   -1.91456708    0.82427393
 H                 -1.53355858   -3.71696836   -0.32809338
 H                  0.91982649   -3.63583600    0.58456062
 H                 -1.15182477   -0.35010381    2.10394259
 N                  0.23177619   -1.84878869    1.56421203
 C                  1.43371861   -1.40681587    2.28594221
 H                  2.02629907   -2.25859277    2.54714042
 H                  2.00505228   -0.75306658    1.66057056
 H                  1.14468774   -0.88708016    3.17545665
 C                 -3.16190575   -1.55879110    0.57637972
 H                 -3.27488195   -0.49596983    0.62685079
 H                 -3.45081589   -1.90245500   -0.39487002
 C                 -4.05496469   -2.22112233    1.64191389
 H                 -3.94198848   -3.28394360    1.59144283
 H                 -3.76605454   -1.87745844    2.61316363
 C                 -5.52643950   -1.84840464    1.38221520
 H                 -5.63941571   -0.78558337    1.43268628
 H                 -5.81534964   -2.19206853    0.41096546
 C                 -6.41949844   -2.51073589    2.44774937
 H                 -6.13058829   -2.16707200    3.41899911
 H                 -7.44188677   -2.25176970    2.26730937
 H                 -6.30652223   -3.57355715    2.39727829
 S                  0.12500496   -0.72799738   -1.43095483
 O                  0.10000571   -2.18856118   -1.27016737
 O                  0.77377465   -0.38641355   -2.70458843
 O                 -1.25073183   -0.21121593   -1.42789593
 O                  0.97951220   -0.04368090   -0.16983297
 C                  2.31817824   -0.54653712   -0.17280944
 H                  2.79054050   -0.29783359   -1.10012840
 H                  2.86567689   -0.10808285    0.63521475
 H                  2.29997654   -1.60995795   -0.05574182

 1 2 2.0 4 1.5 5 1.0
 2 6 1.0 8 1.5
 3 4 2.0 7 1.0 8 2.0
 4 13 1.0
 5
 6
 7
 8 9 1.0
 9 10 1.0 11 1.0 12 1.0
 10
 11
 12
 13 14 1.0 15 1.0 16 1.0
 14
 15
 16 17 1.0 18 1.0 19 1.0
 17
 18
 19 20 1.0 21 1.0 22 1.0
 20
 21
 22 23 1.0 24 1.0 25 1.0
 23
 24
 25
 26 27 2.0 28 2.0 29 2.0 30 1.0
 27
 28
 29
 30 31 1.0
 31 32 1.0 33 1.0 34 1.0
 32
 33
 34

