%chk=FOR.chk
# hf/3-21g geom=connectivity

Title Card Required

0 2
 O(PDBName=O1,ResName=FOR,ResNum=1)                    0.53400000    0.17600000    0.00100000
 C(PDBName=C1,ResName=FOR,ResNum=1)                   -0.69200000    0.05500000   -0.00400000
 H(PDBName=H1,ResName=FOR,ResNum=1)                   -1.25700000    1.02900000    0.03000000
 O(PDBName=O2,ResName=FOR,ResNum=1)                   -1.40500000   -0.94800000   -0.03800000

 1 2 2.0
 2 3 1.0 4 2.0
 3
 4


