%chk=HMI_TF2_2.chk
# hf/3-21g geom=connectivity

Title Card Required

0 1
 C(PDBName=C1,ResName=HMI,ResNum=1)                    0.03500000   -0.96500000   -0.21100000
 C(PDBName=C2,ResName=HMI,ResNum=1)                    1.37400000   -0.98200000   -0.13500000
 C(PDBName=C3,ResName=HMI,ResNum=1)                    0.70900000    1.07500000    0.13700000
 N(PDBName=N1,ResName=HMI,ResNum=1)                   -0.36700000    0.34100000   -0.03400000
 H(PDBName=H1,ResName=HMI,ResNum=1)                   -0.66400000   -1.75600000   -0.36700000
 H(PDBName=H2,ResName=HMI,ResNum=1)                    2.07000000   -1.78900000   -0.21300000
 H(PDBName=H3,ResName=HMI,ResNum=1)                    0.71200000    2.13200000    0.30000000
 N(PDBName=N2,ResName=HMI,ResNum=1)                    1.78200000    0.31600000    0.08400000
 C(PDBName=C4,ResName=HMI,ResNum=1)                   -1.76000000    0.83200000   -0.07000000
 H(PDBName=H4,ResName=HMI,ResNum=1)                   -1.76000000    1.80600000    0.39800000
 H(PDBName=H5,ResName=HMI,ResNum=1)                   -2.34200000    0.16800000    0.55500000
 C(PDBName=C5,ResName=HMI,ResNum=1)                   -2.31400000    0.89900000   -1.49100000
 H(PDBName=H6,ResName=HMI,ResNum=1)                   -2.26400000   -0.08700000   -1.94500000
 H(PDBName=H7,ResName=HMI,ResNum=1)                   -1.68400000    1.55300000   -2.08800000
 C(PDBName=C6,ResName=HMI,ResNum=1)                   -3.75900000    1.40400000   -1.50600000
 H(PDBName=H8,ResName=HMI,ResNum=1)                   -4.37800000    0.74900000   -0.89700000
 H(PDBName=H9,ResName=HMI,ResNum=1)                   -3.80300000    2.38800000   -1.04400000
 C(PDBName=C7,ResName=HMI,ResNum=1)                   -4.33900000    1.48100000   -2.92000000
 H(PDBName=H10,ResName=HMI,ResNum=1)                  -3.71800000    2.13600000   -3.52900000
 H(PDBName=H11,ResName=HMI,ResNum=1)                  -4.29300000    0.49700000   -3.38200000
 C(PDBName=C8,ResName=HMI,ResNum=1)                   -5.78300000    1.98600000   -2.94500000
 H(PDBName=H12,ResName=HMI,ResNum=1)                  -6.40300000    1.33200000   -2.33600000
 H(PDBName=H13,ResName=HMI,ResNum=1)                  -5.82900000    2.97000000   -2.48300000
 C(PDBName=C9,ResName=HMI,ResNum=1)                   -6.35900000    2.06100000   -4.35900000
 H(PDBName=H14,ResName=HMI,ResNum=1)                  -7.38100000    2.42200000   -4.34300000
 H(PDBName=H15,ResName=HMI,ResNum=1)                  -5.78000000    2.73500000   -4.98300000
 H(PDBName=H16,ResName=HMI,ResNum=1)                  -6.35900000    1.08600000   -4.83500000
 C(PDBName=C10,ResName=HMI,ResNum=1)                   3.17000000    0.76100000    0.23800000
 H(PDBName=H17,ResName=HMI,ResNum=1)                   3.61200000    0.26700000    1.09100000
 H(PDBName=H18,ResName=HMI,ResNum=1)                   3.72300000    0.52300000   -0.65800000
 H(PDBName=H19,ResName=HMI,ResNum=1)                   3.18000000    1.82800000    0.39500000
 N                                                     1.57876063   -2.43576589   -2.05047062
 S                                                     0.61876063   -3.33776589   -2.92247062
 S                                                     1.14676063   -1.58076589   -0.80847062
 O                                                    -0.05723937   -4.37776589   -2.20547062
 O                                                    -0.12423937   -2.61776589   -3.91447062
 O                                                     1.98876063   -0.43076589   -0.68247062
 O                                                    -0.26823937   -1.42476589   -0.65247062
 C                                                     1.91376063   -4.19776589   -3.86247062
 C                                                     1.64576063   -2.61176589    0.60552938
 F                                                     1.33376063   -5.03776589   -4.69847062
 F                                                     2.64476063   -3.36676589   -4.56747062
 F                                                     2.70676063   -4.88976589   -3.07747062
 F                                                     2.93676063   -2.85976589    0.57952938
 F                                                     1.00676063   -3.75576589    0.62052938
 F                                                     1.37676063   -1.97576589    1.72852938

 1 2 2.0 4 1.5 5 1.0
 2 6 1.0 8 1.5
 3 4 2.0 7 1.0 8 2.0
 4 9 1.0
 5
 6
 7
 8 28 1.0
 9 10 1.0 11 1.0 12 1.0
 10
 11
 12 13 1.0 14 1.0 15 1.0
 13
 14
 15 16 1.0 17 1.0 18 1.0
 16
 17
 18 19 1.0 20 1.0 21 1.0
 19
 20
 21 22 1.0 23 1.0 24 1.0
 22
 23
 24 25 1.0 26 1.0 27 1.0
 25
 26
 27
 28 29 1.0 30 1.0 31 1.0
 29
 30
 31
 32 33 1.5 34 1.5
 33 35 2.0 36 2.0 39 1.0
 34 37 2.0 38 2.0 40 1.0
 35
 36
 37
 38
 39 41 1.0 42 1.0 43 1.0
 40 44 1.0 45 1.0 46 1.0
 41
 42
 43
 44
 45
 46


