%chk=PAM_FOR_4.chk
# hf/3-21g geom=connectivity

Title Card Required

0 1
 C(PDBName=C1,ResName=PAM,ResNum=1)                   -2.13114449   -0.80018835    0.11587242
 H(PDBName=H1,ResName=PAM,ResNum=1)                   -1.89144350   -1.81379847    0.36089885
 H(PDBName=H2,ResName=PAM,ResNum=1)                   -3.19353182   -0.69064292    0.05081132
 C(PDBName=C2,ResName=PAM,ResNum=1)                   -1.58467085    0.13546881    1.21018145
 H(PDBName=H3,ResName=PAM,ResNum=1)                   -1.82437183    1.14907894    0.96515502
 H(PDBName=H4,ResName=PAM,ResNum=1)                   -2.02766448   -0.11849643    2.15047837
 C(PDBName=C3,ResName=PAM,ResNum=1)                   -0.05562739   -0.02219470    1.30382080
 H(PDBName=H5,ResName=PAM,ResNum=1)                    0.38736624    0.23177055    0.36352388
 H(PDBName=H6,ResName=PAM,ResNum=1)                    0.18407359   -1.03580482    1.54884723
 C(PDBName=C4,ResName=PAM,ResNum=1)                    0.49084625    0.91346246    2.39812982
 H(PDBName=H7,ResName=PAM,ResNum=1)                    0.04785262    0.65949722    3.33842674
 H(PDBName=H8,ResName=PAM,ResNum=1)                    0.25114526    1.92707259    2.15310339
 N(PDBName=N1,ResName=PAM,ResNum=1)                    1.95038773    0.76296547    2.48751284
 H(PDBName=H9,ResName=PAM,ResNum=1)                    2.30524074    1.37053506    3.19810311
 H(PDBName=H10,ResName=PAM,ResNum=1)                   2.17440734   -0.18433371    2.71650950
 H(PDBName=H11,ResName=PAM,ResNum=1)                   2.36440047    1.00031617    1.60873067
 C(PDBName=C5,ResName=PAM,ResNum=1)                   -1.49356487   -0.43466828   -1.23745212
 H(PDBName=H12,ResName=PAM,ResNum=1)                  -0.43117753   -0.54421370   -1.17239101
 H(PDBName=H13,ResName=PAM,ResNum=1)                  -1.87325759   -1.08476773   -1.99778371
 H(PDBName=H14,ResName=PAM,ResNum=1)                  -1.73326585    0.57894185   -1.48247855
 O                                                     1.67882716    1.04636802    0.54623596
 C                                                     0.42042983    1.04379014    0.54595012
 H                                                    -0.11647342    1.96879107    0.57770190
 O                                                    -0.20652913   -0.04665797    0.50832120

 1 2 1.0 3 1.0 4 1.0 17 1.0
 2
 3
 4 5 1.0 6 1.0 7 1.0
 5
 6
 7 8 1.0 9 1.0 10 1.0
 8
 9
 10 11 1.0 12 1.0 13 1.0
 11
 12
 13 14 1.0 15 1.0 16 1.0
 14
 15
 16
 17 18 1.0 19 1.0 20 1.0
 18
 19
 20
 21 22 2.0
 22 23 1.0 24 2.0
 23
 24


