%NProcShared=8
#n CCSD/6-31G(d) Opt

 CH2_CCSD/3-21G

0 1
C         -1.73303        2.20043        0.00000
C         -0.77444        1.28639        0.00000
H         -1.56626        3.19017       -0.41802
H         -2.71372        1.98677        0.41802
H          0.20625        1.50005       -0.41802
H         -0.94121        0.29665        0.41802