%NProcShared=8
#n MP2/6-31G(d,p) Opt

 CH3_MP2/6-31G(d)

0 1
C         -1.76985        1.60508        0.00000
C         -0.94833        0.30637       -0.00000
H         -2.70278        1.46556        0.55070
H         -2.01181        1.90264       -1.02275
H         -1.20570        2.41255        0.47205
H         -1.51248       -0.50110       -0.47205
H         -0.70637        0.00881        1.02275
H         -0.01540        0.44589       -0.55070

