%chk=BMI_MTS_1.chk
%nprocshared=2
# opt M062X/6-311+G* geom=connectivity

Title Card Required

0 1
 S(PDBName=S1,ResName=MTS,ResNum=1)                   -2.31443256    0.72770048    0.13525673
 O(PDBName=O1,ResName=MTS,ResNum=1)                   -2.33943173   -0.73286334    0.29604404
 O(PDBName=O2,ResName=MTS,ResNum=1)                   -1.66566290    1.06928451   -1.13837684
 O(PDBName=O3,ResName=MTS,ResNum=1)                   -3.69016941    1.24448184    0.13831574
 O(PDBName=O4,ResName=MTS,ResNum=1)                   -1.45992535    1.41201688    1.39637866
 C(PDBName=C1,ResName=MTS,ResNum=1)                   -0.12125931    0.90916066    1.39340221
 H(PDBName=H1,ResName=MTS,ResNum=1)                    0.35110282    1.15786394    0.46608311
 H(PDBName=H2,ResName=MTS,ResNum=1)                    0.42623944    1.34761520    2.20142620
 H(PDBName=H3,ResName=MTS,ResNum=1)                   -0.13946099   -0.15426017    1.51047015
 C                                                    -1.12040978   -2.97500735    0.32283055
 C                                                     0.13974736   -2.93333433    0.79160613
 C                                                    -0.92351652   -1.24887715    1.57010564
 N                                                    -1.75731616   -1.91456723    0.82427407
 H                                                    -1.53355863   -3.71696879   -0.32809284
 H                                                     0.91982672   -3.63583575    0.58456041
 H                                                    -1.15182503   -0.35010432    2.10394325
 N                                                     0.23177621   -1.84878871    1.56421210
 C                                                     1.43371871   -1.40681571    2.28594202
 H                                                     2.02629942   -2.25859254    2.54714003
 H                                                     2.00505206   -0.75306622    1.66057029
 H                                                     1.14468793   -0.88708016    3.17545659
 C                                                    -3.16190572   -1.55879120    0.57637975
 H                                                    -3.27488192   -0.49596994    0.62685083
 H                                                    -3.45081578   -1.90245505   -0.39487002
 C                                                    -4.05496476   -2.22112241    1.64191385
 H                                                    -3.94198871   -3.28394366    1.59144270
 H                                                    -3.76605460   -1.87745867    2.61316363
 C                                                    -5.52643950   -1.84840452    1.38221517
 H                                                    -5.63941564   -0.78558324    1.43268633
 H                                                    -5.81534961   -2.19206829    0.41096536
 C                                                    -6.41949852   -2.51073577    2.44774928
 H                                                    -6.13058837   -2.16707198    3.41899907
 H                                                    -7.44188682   -2.25176946    2.26730929
 H                                                    -6.30652239   -3.57355707    2.39727811

 1 2 2.0 3 2.0 4 2.0 5 1.0
 2
 3
 4
 5 6 1.0
 6 7 1.0 8 1.0 9 1.0
 7
 8
 9
 10 11 2.0 13 1.5 14 1.0
 11 15 1.0 17 1.5
 12 13 2.0 16 1.0 17 2.0
 13 22 1.0
 14
 15
 16
 17 18 1.0
 18 19 1.0 20 1.0 21 1.0
 19
 20
 21
 22 23 1.0 24 1.0 25 1.0
 23
 24
 25 26 1.0 27 1.0 28 1.0
 26
 27
 28 29 1.0 30 1.0 31 1.0
 29
 30
 31 32 1.0 33 1.0 34 1.0
 32
 33
 34


