%NProcShared=8
#n MP2/STO-3G Opt

 Ethene MP2 STO-3G

0 1
C         -9.63775        4.09195       -0.00000
C         -8.30677        4.06546       -0.00000
H        -10.16733        4.95037        0.40022
H        -10.20106        3.25527       -0.40022
H         -7.74346        4.90214        0.40022
H         -7.77720        3.20703       -0.40022

